192

C 3.511487 2.027358 -9.210180
C 1.388523 3.809557 -9.210180
C 0.000000 4.054716 -9.210180
C -2.604911 3.107275 -9.210180
C -3.511487 2.027358 -9.210180
C -3.993435 -0.702282 -9.210180
C -3.511487 -2.027358 -9.210180
C -1.388523 -3.809557 -9.210180
C -0.000000 -4.054716 -9.210180
C 2.604911 -3.107275 -9.210180
C 3.511487 -2.027358 -9.210180
C 3.993435 0.702282 -9.210180
C 4.054716 0.000000 -7.982156
C 3.107275 2.604911 -7.982156
C 2.027358 3.511487 -7.982156
C -0.702282 3.993435 -7.982156
C -2.027358 3.511487 -7.982156
C -3.809557 1.388523 -7.982156
C -4.054716 0.000000 -7.982156
C -3.107275 -2.604911 -7.982156
C -2.027358 -3.511487 -7.982156
C 0.702282 -3.993435 -7.982156
C 2.027358 -3.511487 -7.982156
C 3.809557 -1.388523 -7.982156
C 3.511487 2.027358 -6.754132
C 1.388523 3.809557 -6.754132
C 0.000000 4.054716 -6.754132
C -2.604911 3.107275 -6.754132
C -3.511487 2.027358 -6.754132
C -3.993435 -0.702282 -6.754132
C -3.511487 -2.027358 -6.754132
C -1.388523 -3.809557 -6.754132
C -0.000000 -4.054716 -6.754132
C 2.604911 -3.107275 -6.754132
C 3.511487 -2.027358 -6.754132
C 3.993435 0.702282 -6.754132
C 4.054716 0.000000 -5.526108
C 3.107275 2.604911 -5.526108
C 2.027358 3.511487 -5.526108
C -0.702282 3.993435 -5.526108
C -2.027358 3.511487 -5.526108
C -3.809557 1.388523 -5.526108
C -4.054716 0.000000 -5.526108
C -3.107275 -2.604911 -5.526108
C -2.027358 -3.511487 -5.526108
C 0.702282 -3.993435 -5.526108
C 2.027358 -3.511487 -5.526108
C 3.809557 -1.388523 -5.526108
C 3.511487 2.027358 -4.298084
C 1.388523 3.809557 -4.298084
C 0.000000 4.054716 -4.298084
C -2.604911 3.107275 -4.298084
C -3.511487 2.027358 -4.298084
C -3.993435 -0.702282 -4.298084
C -3.511487 -2.027358 -4.298084
C -1.388523 -3.809557 -4.298084
C -0.000000 -4.054716 -4.298084
C 2.604911 -3.107275 -4.298084
C 3.511487 -2.027358 -4.298084
C 3.993435 0.702282 -4.298084
C 4.054716 0.000000 -3.070060
C 3.107275 2.604911 -3.070060
C 2.027358 3.511487 -3.070060
C -0.702282 3.993435 -3.070060
C -2.027358 3.511487 -3.070060
C -3.809557 1.388523 -3.070060
C -4.054716 0.000000 -3.070060
C -3.107275 -2.604911 -3.070060
C -2.027358 -3.511487 -3.070060
C 0.702282 -3.993435 -3.070060
C 2.027358 -3.511487 -3.070060
C 3.809557 -1.388523 -3.070060
C 3.511487 2.027358 -1.842036
C 1.388523 3.809557 -1.842036
C 0.000000 4.054716 -1.842036
C -2.604911 3.107275 -1.842036
C -3.511487 2.027358 -1.842036
C -3.993435 -0.702282 -1.842036
C -3.511487 -2.027358 -1.842036
C -1.388523 -3.809557 -1.842036
C -0.000000 -4.054716 -1.842036
C 2.604911 -3.107275 -1.842036
C 3.511487 -2.027358 -1.842036
C 3.993435 0.702282 -1.842036
C 4.054716 0.000000 -0.614012
C 3.107275 2.604911 -0.614012
C 2.027358 3.511487 -0.614012
C -0.702282 3.993435 -0.614012
C -2.027358 3.511487 -0.614012
C -3.809557 1.388523 -0.614012
C -4.054716 0.000000 -0.614012
C -3.107275 -2.604911 -0.614012
C -2.027358 -3.511487 -0.614012
C 0.702282 -3.993435 -0.614012
C 2.027358 -3.511487 -0.614012
C 3.809557 -1.388523 -0.614012
C 3.511487 2.027358 0.614012
C 1.388523 3.809557 0.614012
C 0.000000 4.054716 0.614012
C -2.604911 3.107275 0.614012
C -3.511487 2.027358 0.614012
C -3.993435 -0.702282 0.614012
C -3.511487 -2.027358 0.614012
C -1.388523 -3.809557 0.614012
C -0.000000 -4.054716 0.614012
C 2.604911 -3.107275 0.614012
C 3.511487 -2.027358 0.614012
C 3.993435 0.702282 0.614012
C 4.054716 0.000000 1.842036
C 3.107275 2.604911 1.842036
C 2.027358 3.511487 1.842036
C -0.702282 3.993435 1.842036
C -2.027358 3.511487 1.842036
C -3.809557 1.388523 1.842036
C -4.054716 0.000000 1.842036
C -3.107275 -2.604911 1.842036
C -2.027358 -3.511487 1.842036
C 0.702282 -3.993435 1.842036
C 2.027358 -3.511487 1.842036
C 3.809557 -1.388523 1.842036
C 3.511487 2.027358 3.070060
C 1.388523 3.809557 3.070060
C 0.000000 4.054716 3.070060
C -2.604911 3.107275 3.070060
C -3.511487 2.027358 3.070060
C -3.993435 -0.702282 3.070060
C -3.511487 -2.027358 3.070060
C -1.388523 -3.809557 3.070060
C -0.000000 -4.054716 3.070060
C 2.604911 -3.107275 3.070060
C 3.511487 -2.027358 3.070060
C 3.993435 0.702282 3.070060
C 4.054716 0.000000 4.298084
C 3.107275 2.604911 4.298084
C 2.027358 3.511487 4.298084
C -0.702282 3.993435 4.298084
C -2.027358 3.511487 4.298084
C -3.809557 1.388523 4.298084
C -4.054716 0.000000 4.298084
C -3.107275 -2.604911 4.298084
C -2.027358 -3.511487 4.298084
C 0.702282 -3.993435 4.298084
C 2.027358 -3.511487 4.298084
C 3.809557 -1.388523 4.298084
C 3.511487 2.027358 5.526108
C 1.388523 3.809557 5.526108
C 0.000000 4.054716 5.526108
C -2.604911 3.107275 5.526108
C -3.511487 2.027358 5.526108
C -3.993435 -0.702282 5.526108
C -3.511487 -2.027358 5.526108
C -1.388523 -3.809557 5.526108
C -0.000000 -4.054716 5.526108
C 2.604911 -3.107275 5.526108
C 3.511487 -2.027358 5.526108
C 3.993435 0.702282 5.526108
C 4.054716 0.000000 6.754132
C 3.107275 2.604911 6.754132
C 2.027358 3.511487 6.754132
C -0.702282 3.993435 6.754132
C -2.027358 3.511487 6.754132
C -3.809557 1.388523 6.754132
C -4.054716 0.000000 6.754132
C -3.107275 -2.604911 6.754132
C -2.027358 -3.511487 6.754132
C 0.702282 -3.993435 6.754132
C 2.027358 -3.511487 6.754132
C 3.809557 -1.388523 6.754132
C 3.511487 2.027358 7.982156
C 1.388523 3.809557 7.982156
C 0.000000 4.054716 7.982156
C -2.604911 3.107275 7.982156
C -3.511487 2.027358 7.982156
C -3.993435 -0.702282 7.982156
C -3.511487 -2.027358 7.982156
C -1.388523 -3.809557 7.982156
C -0.000000 -4.054716 7.982156
C 2.604911 -3.107275 7.982156
C 3.511487 -2.027358 7.982156
C 3.993435 0.702282 7.982156
C 4.054716 0.000000 9.210180
C 3.107275 2.604911 9.210180
C 2.027358 3.511487 9.210180
C -0.702282 3.993435 9.210180
C -2.027358 3.511487 9.210180
C -3.809557 1.388523 9.210180
C -4.054716 0.000000 9.210180
C -3.107275 -2.604911 9.210180
C -2.027358 -3.511487 9.210180
C 0.702282 -3.993435 9.210180
C 2.027358 -3.511487 9.210180
C 3.809557 -1.388523 9.210180
