748

C 0.000000 0.000000 -14.926000
C 2.456048 0.000000 -14.926000
C 4.912096 0.000000 -14.926000
C 7.368144 0.000000 -14.926000
C 9.824192 0.000000 -14.926000
C 12.280240 0.000000 -14.926000
C 14.736288 0.000000 -14.926000
C 17.192336 0.000000 -14.926000
C -1.228024 0.709000 -14.926000
C 1.228024 0.709000 -14.926000
C 3.684072 0.709000 -14.926000
C 6.140120 0.709000 -14.926000
C 8.596168 0.709000 -14.926000
C 11.052216 0.709000 -14.926000
C 13.508264 0.709000 -14.926000
C 15.964312 0.709000 -14.926000
C -1.228024 2.127000 -14.926000
C 1.228024 2.127000 -14.926000
C 3.684072 2.127000 -14.926000
C 6.140120 2.127000 -14.926000
C 8.596168 2.127000 -14.926000
C 11.052216 2.127000 -14.926000
C 13.508264 2.127000 -14.926000
C 15.964312 2.127000 -14.926000
C 0.000000 2.836000 -14.926000
C 2.456048 2.836000 -14.926000
C 4.912096 2.836000 -14.926000
C 7.368144 2.836000 -14.926000
C 9.824192 2.836000 -14.926000
C 12.280240 2.836000 -14.926000
C 14.736288 2.836000 -14.926000
C 17.192336 2.836000 -14.926000
C 0.000000 4.254000 -14.926000
C 2.456048 4.254000 -14.926000
C 4.912096 4.254000 -14.926000
C 7.368144 4.254000 -14.926000
C 9.824192 4.254000 -14.926000
C 12.280240 4.254000 -14.926000
C 14.736288 4.254000 -14.926000
C 17.192336 4.254000 -14.926000
C -1.228024 4.963000 -14.926000
C 1.228024 4.963000 -14.926000
C 3.684072 4.963000 -14.926000
C 6.140120 4.963000 -14.926000
C 8.596168 4.963000 -14.926000
C 11.052216 4.963000 -14.926000
C 13.508264 4.963000 -14.926000
C 15.964312 4.963000 -14.926000
C -1.228024 6.381000 -14.926000
C 1.228024 6.381000 -14.926000
C 3.684072 6.381000 -14.926000
C 6.140120 6.381000 -14.926000
C 8.596168 6.381000 -14.926000
C 11.052216 6.381000 -14.926000
C 13.508264 6.381000 -14.926000
C 15.964312 6.381000 -14.926000
C 0.000000 7.090000 -14.926000
C 2.456048 7.090000 -14.926000
C 4.912096 7.090000 -14.926000
C 7.368144 7.090000 -14.926000
C 9.824192 7.090000 -14.926000
C 12.280240 7.090000 -14.926000
C 14.736288 7.090000 -14.926000
C 17.192336 7.090000 -14.926000
C 0.000000 8.508000 -14.926000
C 2.456048 8.508000 -14.926000
C 4.912096 8.508000 -14.926000
C 7.368144 8.508000 -14.926000
C 9.824192 8.508000 -14.926000
C 12.280240 8.508000 -14.926000
C 14.736288 8.508000 -14.926000
C 17.192336 8.508000 -14.926000
C -1.228024 9.217000 -14.926000
C 1.228024 9.217000 -14.926000
C 3.684072 9.217000 -14.926000
C 6.140120 9.217000 -14.926000
C 8.596168 9.217000 -14.926000
C 11.052216 9.217000 -14.926000
C 13.508264 9.217000 -14.926000
C 15.964312 9.217000 -14.926000
C -1.228024 10.635000 -14.926000
C 1.228024 10.635000 -14.926000
C 3.684072 10.635000 -14.926000
C 6.140120 10.635000 -14.926000
C 8.596168 10.635000 -14.926000
C 11.052216 10.635000 -14.926000
C 13.508264 10.635000 -14.926000
C 15.964312 10.635000 -14.926000
C 0.000000 11.344000 -14.926000
C 2.456048 11.344000 -14.926000
C 4.912096 11.344000 -14.926000
C 7.368144 11.344000 -14.926000
C 9.824192 11.344000 -14.926000
C 12.280240 11.344000 -14.926000
C 14.736288 11.344000 -14.926000
C 17.192336 11.344000 -14.926000
C 0.000000 12.762000 -14.926000
C 2.456048 12.762000 -14.926000
C 4.912096 12.762000 -14.926000
C 7.368144 12.762000 -14.926000
C 9.824192 12.762000 -14.926000
C 12.280240 12.762000 -14.926000
C 14.736288 12.762000 -14.926000
C 17.192336 12.762000 -14.926000
C -1.228024 13.471000 -14.926000
C 1.228024 13.471000 -14.926000
C 3.684072 13.471000 -14.926000
C 6.140120 13.471000 -14.926000
C 8.596168 13.471000 -14.926000
C 11.052216 13.471000 -14.926000
C 13.508264 13.471000 -14.926000
C 15.964312 13.471000 -14.926000
C -1.228024 14.889000 -14.926000
C 1.228024 14.889000 -14.926000
C 3.684072 14.889000 -14.926000
C 6.140120 14.889000 -14.926000
C 8.596168 14.889000 -14.926000
C 11.052216 14.889000 -14.926000
C 13.508264 14.889000 -14.926000
C 15.964312 14.889000 -14.926000
C 0.000000 15.598000 -14.926000
C 2.456048 15.598000 -14.926000
C 4.912096 15.598000 -14.926000
C 7.368144 15.598000 -14.926000
C 9.824192 15.598000 -14.926000
C 12.280240 15.598000 -14.926000
C 14.736288 15.598000 -14.926000
C 17.192336 15.598000 -14.926000
C 0.000000 17.016000 -14.926000
C 2.456048 17.016000 -14.926000
C 4.912096 17.016000 -14.926000
C 7.368144 17.016000 -14.926000
C 9.824192 17.016000 -14.926000
C 12.280240 17.016000 -14.926000
C 14.736288 17.016000 -14.926000
C 17.192336 17.016000 -14.926000
C -1.228024 17.725000 -14.926000
C 1.228024 17.725000 -14.926000
C 3.684072 17.725000 -14.926000
C 6.140120 17.725000 -14.926000
C 8.596168 17.725000 -14.926000
C 11.052216 17.725000 -14.926000
C 13.508264 17.725000 -14.926000
C 15.964312 17.725000 -14.926000
C -1.228024 19.143000 -14.926000
C 1.228024 19.143000 -14.926000
C 3.684072 19.143000 -14.926000
C 6.140120 19.143000 -14.926000
C 8.596168 19.143000 -14.926000
C 11.052216 19.143000 -14.926000
C 13.508264 19.143000 -14.926000
C 15.964312 19.143000 -14.926000
C 0.000000 19.852000 -14.926000
C 2.456048 19.852000 -14.926000
C 4.912096 19.852000 -14.926000
C 7.368144 19.852000 -14.926000
C 9.824192 19.852000 -14.926000
C 12.280240 19.852000 -14.926000
C 14.736288 19.852000 -14.926000
C 17.192336 19.852000 -14.926000
C 0.000000 0.000000 -9.926000
C 2.456048 0.000000 -9.926000
C 4.912096 0.000000 -9.926000
C 7.368144 0.000000 -9.926000
C 9.824192 0.000000 -9.926000
C 12.280240 0.000000 -9.926000
C 14.736288 0.000000 -9.926000
C 17.192336 0.000000 -9.926000
C -1.228024 0.709000 -9.926000
C 1.228024 0.709000 -9.926000
C 3.684072 0.709000 -9.926000
C 6.140120 0.709000 -9.926000
C 8.596168 0.709000 -9.926000
C 11.052216 0.709000 -9.926000
C 13.508264 0.709000 -9.926000
C 15.964312 0.709000 -9.926000
C -1.228024 2.127000 -9.926000
C 1.228024 2.127000 -9.926000
C 3.684072 2.127000 -9.926000
C 6.140120 2.127000 -9.926000
C 8.596168 2.127000 -9.926000
C 11.052216 2.127000 -9.926000
C 13.508264 2.127000 -9.926000
C 15.964312 2.127000 -9.926000
C 0.000000 2.836000 -9.926000
C 2.456048 2.836000 -9.926000
C 4.912096 2.836000 -9.926000
C 7.368144 2.836000 -9.926000
C 9.824192 2.836000 -9.926000
C 12.280240 2.836000 -9.926000
C 14.736288 2.836000 -9.926000
C 17.192336 2.836000 -9.926000
C 0.000000 4.254000 -9.926000
C 2.456048 4.254000 -9.926000
C 4.912096 4.254000 -9.926000
C 12.280240 4.254000 -9.926000
C 14.736288 4.254000 -9.926000
C 17.192336 4.254000 -9.926000
C -1.228024 4.963000 -9.926000
C 1.228024 4.963000 -9.926000
C 3.684072 4.963000 -9.926000
C 13.508264 4.963000 -9.926000
C 15.964312 4.963000 -9.926000
C -1.228024 6.381000 -9.926000
C 1.228024 6.381000 -9.926000
C 13.508264 6.381000 -9.926000
C 15.964312 6.381000 -9.926000
C 0.000000 7.090000 -9.926000
C 2.456048 7.090000 -9.926000
C 14.736288 7.090000 -9.926000
C 17.192336 7.090000 -9.926000
C 0.000000 8.508000 -9.926000
C 14.736288 8.508000 -9.926000
C 17.192336 8.508000 -9.926000
C -1.228024 9.217000 -9.926000
C 1.228024 9.217000 -9.926000
C 15.964312 9.217000 -9.926000
C -1.228024 10.635000 -9.926000
C 1.228024 10.635000 -9.926000
C 15.964312 10.635000 -9.926000
C 0.000000 11.344000 -9.926000
C 14.736288 11.344000 -9.926000
C 17.192336 11.344000 -9.926000
C 0.000000 12.762000 -9.926000
C 2.456048 12.762000 -9.926000
C 14.736288 12.762000 -9.926000
C 17.192336 12.762000 -9.926000
C -1.228024 13.471000 -9.926000
C 1.228024 13.471000 -9.926000
C 13.508264 13.471000 -9.926000
C 15.964312 13.471000 -9.926000
C -1.228024 14.889000 -9.926000
C 1.228024 14.889000 -9.926000
C 3.684072 14.889000 -9.926000
C 13.508264 14.889000 -9.926000
C 15.964312 14.889000 -9.926000
C 0.000000 15.598000 -9.926000
C 2.456048 15.598000 -9.926000
C 4.912096 15.598000 -9.926000
C 12.280240 15.598000 -9.926000
C 14.736288 15.598000 -9.926000
C 17.192336 15.598000 -9.926000
C 0.000000 17.016000 -9.926000
C 2.456048 17.016000 -9.926000
C 4.912096 17.016000 -9.926000
C 7.368144 17.016000 -9.926000
C 9.824192 17.016000 -9.926000
C 12.280240 17.016000 -9.926000
C 14.736288 17.016000 -9.926000
C 17.192336 17.016000 -9.926000
C -1.228024 17.725000 -9.926000
C 1.228024 17.725000 -9.926000
C 3.684072 17.725000 -9.926000
C 6.140120 17.725000 -9.926000
C 8.596168 17.725000 -9.926000
C 11.052216 17.725000 -9.926000
C 13.508264 17.725000 -9.926000
C 15.964312 17.725000 -9.926000
C -1.228024 19.143000 -9.926000
C 1.228024 19.143000 -9.926000
C 3.684072 19.143000 -9.926000
C 6.140120 19.143000 -9.926000
C 8.596168 19.143000 -9.926000
C 11.052216 19.143000 -9.926000
C 13.508264 19.143000 -9.926000
C 15.964312 19.143000 -9.926000
C 0.000000 19.852000 -9.926000
C 2.456048 19.852000 -9.926000
C 4.912096 19.852000 -9.926000
C 7.368144 19.852000 -9.926000
C 9.824192 19.852000 -9.926000
C 12.280240 19.852000 -9.926000
C 14.736288 19.852000 -9.926000
C 17.192336 19.852000 -9.926000
C 11.761625 11.154024 -9.926000
C 10.317996 13.141009 -9.926000
C 7.982156 13.899969 -9.926000
C 5.646316 13.141009 -9.926000
C 4.202687 11.154024 -9.926000
C 4.202687 8.697976 -9.926000
C 5.646316 6.710991 -9.926000
C 7.982156 5.952031 -9.926000
C 10.317996 6.710991 -9.926000
C 11.761625 8.697976 -9.926000
C 11.956125 9.926000 -9.217000
C 11.197165 12.261840 -9.217000
C 9.210180 13.705469 -9.217000
C 6.754132 13.705469 -9.217000
C 4.767147 12.261840 -9.217000
C 4.008187 9.926000 -9.217000
C 4.767147 7.590160 -9.217000
C 6.754132 6.146531 -9.217000
C 9.210180 6.146531 -9.217000
C 11.197165 7.590160 -9.217000
C 11.956125 9.926000 -7.799000
C 11.197165 12.261840 -7.799000
C 9.210180 13.705469 -7.799000
C 6.754132 13.705469 -7.799000
C 4.767147 12.261840 -7.799000
C 4.008187 9.926000 -7.799000
C 4.767147 7.590160 -7.799000
C 6.754132 6.146531 -7.799000
C 9.210180 6.146531 -7.799000
C 11.197165 7.590160 -7.799000
C 11.761625 11.154024 -7.090000
C 10.317996 13.141009 -7.090000
C 7.982156 13.899969 -7.090000
C 5.646316 13.141009 -7.090000
C 4.202687 11.154024 -7.090000
C 4.202687 8.697976 -7.090000
C 5.646316 6.710991 -7.090000
C 7.982156 5.952031 -7.090000
C 10.317996 6.710991 -7.090000
C 11.761625 8.697976 -7.090000
C 11.761625 11.154024 -5.672000
C 10.317996 13.141009 -5.672000
C 7.982156 13.899969 -5.672000
C 5.646316 13.141009 -5.672000
C 4.202687 11.154024 -5.672000
C 4.202687 8.697976 -5.672000
C 5.646316 6.710991 -5.672000
C 7.982156 5.952031 -5.672000
C 10.317996 6.710991 -5.672000
C 11.761625 8.697976 -5.672000
C 11.956125 9.926000 -4.963000
C 11.197165 12.261840 -4.963000
C 9.210180 13.705469 -4.963000
C 6.754132 13.705469 -4.963000
C 4.767147 12.261840 -4.963000
C 4.008187 9.926000 -4.963000
C 4.767147 7.590160 -4.963000
C 6.754132 6.146531 -4.963000
C 9.210180 6.146531 -4.963000
C 11.197165 7.590160 -4.963000
C 11.956125 9.926000 -3.545000
C 11.197165 12.261840 -3.545000
C 9.210180 13.705469 -3.545000
C 6.754132 13.705469 -3.545000
C 4.767147 12.261840 -3.545000
C 4.008187 9.926000 -3.545000
C 4.767147 7.590160 -3.545000
C 6.754132 6.146531 -3.545000
C 9.210180 6.146531 -3.545000
C 11.197165 7.590160 -3.545000
C 11.761625 11.154024 -2.836000
C 10.317996 13.141009 -2.836000
C 7.982156 13.899969 -2.836000
C 5.646316 13.141009 -2.836000
C 4.202687 11.154024 -2.836000
C 4.202687 8.697976 -2.836000
C 5.646316 6.710991 -2.836000
C 7.982156 5.952031 -2.836000
C 10.317996 6.710991 -2.836000
C 11.761625 8.697976 -2.836000
C 11.761625 11.154024 -1.418000
C 10.317996 13.141009 -1.418000
C 7.982156 13.899969 -1.418000
C 5.646316 13.141009 -1.418000
C 4.202687 11.154024 -1.418000
C 4.202687 8.697976 -1.418000
C 5.646316 6.710991 -1.418000
C 7.982156 5.952031 -1.418000
C 10.317996 6.710991 -1.418000
C 11.761625 8.697976 -1.418000
C 11.956125 9.926000 -0.709000
C 11.197165 12.261840 -0.709000
C 9.210180 13.705469 -0.709000
C 6.754132 13.705469 -0.709000
C 4.767147 12.261840 -0.709000
C 4.008187 9.926000 -0.709000
C 4.767147 7.590160 -0.709000
C 6.754132 6.146531 -0.709000
C 9.210180 6.146531 -0.709000
C 11.197165 7.590160 -0.709000
C 11.956125 9.926000 0.709000
C 11.197165 12.261840 0.709000
C 9.210180 13.705469 0.709000
C 6.754132 13.705469 0.709000
C 4.767147 12.261840 0.709000
C 4.008187 9.926000 0.709000
C 4.767147 7.590160 0.709000
C 6.754132 6.146531 0.709000
C 9.210180 6.146531 0.709000
C 11.197165 7.590160 0.709000
C 11.761625 11.154024 1.418000
C 10.317996 13.141009 1.418000
C 7.982156 13.899969 1.418000
C 5.646316 13.141009 1.418000
C 4.202687 11.154024 1.418000
C 4.202687 8.697976 1.418000
C 5.646316 6.710991 1.418000
C 7.982156 5.952031 1.418000
C 10.317996 6.710991 1.418000
C 11.761625 8.697976 1.418000
C 11.761625 11.154024 2.836000
C 10.317996 13.141009 2.836000
C 7.982156 13.899969 2.836000
C 5.646316 13.141009 2.836000
C 4.202687 11.154024 2.836000
C 4.202687 8.697976 2.836000
C 5.646316 6.710991 2.836000
C 7.982156 5.952031 2.836000
C 10.317996 6.710991 2.836000
C 11.761625 8.697976 2.836000
C 11.956125 9.926000 3.545000
C 11.197165 12.261840 3.545000
C 9.210180 13.705469 3.545000
C 6.754132 13.705469 3.545000
C 4.767147 12.261840 3.545000
C 4.008187 9.926000 3.545000
C 4.767147 7.590160 3.545000
C 6.754132 6.146531 3.545000
C 9.210180 6.146531 3.545000
C 11.197165 7.590160 3.545000
C 11.956125 9.926000 4.963000
C 11.197165 12.261840 4.963000
C 9.210180 13.705469 4.963000
C 6.754132 13.705469 4.963000
C 4.767147 12.261840 4.963000
C 4.008187 9.926000 4.963000
C 4.767147 7.590160 4.963000
C 6.754132 6.146531 4.963000
C 9.210180 6.146531 4.963000
C 11.197165 7.590160 4.963000
C 11.761625 11.154024 5.672000
C 10.317996 13.141009 5.672000
C 7.982156 13.899969 5.672000
C 5.646316 13.141009 5.672000
C 4.202687 11.154024 5.672000
C 4.202687 8.697976 5.672000
C 5.646316 6.710991 5.672000
C 7.982156 5.952031 5.672000
C 10.317996 6.710991 5.672000
C 11.761625 8.697976 5.672000
C 11.761625 11.154024 7.090000
C 10.317996 13.141009 7.090000
C 7.982156 13.899969 7.090000
C 5.646316 13.141009 7.090000
C 4.202687 11.154024 7.090000
C 4.202687 8.697976 7.090000
C 5.646316 6.710991 7.090000
C 7.982156 5.952031 7.090000
C 10.317996 6.710991 7.090000
C 11.761625 8.697976 7.090000
C 11.956125 9.926000 7.799000
C 11.197165 12.261840 7.799000
C 9.210180 13.705469 7.799000
C 6.754132 13.705469 7.799000
C 4.767147 12.261840 7.799000
C 4.008187 9.926000 7.799000
C 4.767147 7.590160 7.799000
C 6.754132 6.146531 7.799000
C 9.210180 6.146531 7.799000
C 11.197165 7.590160 7.799000
C 11.956125 9.926000 9.217000
C 11.197165 12.261840 9.217000
C 9.210180 13.705469 9.217000
C 6.754132 13.705469 9.217000
C 4.767147 12.261840 9.217000
C 4.008187 9.926000 9.217000
C 4.767147 7.590160 9.217000
C 6.754132 6.146531 9.217000
C 9.210180 6.146531 9.217000
C 11.197165 7.590160 9.217000
C 11.761625 11.154024 9.926000
C 10.317996 13.141009 9.926000
C 7.982156 13.899969 9.926000
C 5.646316 13.141009 9.926000
C 4.202687 11.154024 9.926000
C 4.202687 8.697976 9.926000
C 5.646316 6.710991 9.926000
C 7.982156 5.952031 9.926000
C 10.317996 6.710991 9.926000
C 11.761625 8.697976 9.926000
C 0.000000 0.000000 9.926000
C 2.456048 0.000000 9.926000
C 4.912096 0.000000 9.926000
C 7.368144 0.000000 9.926000
C 9.824192 0.000000 9.926000
C 12.280240 0.000000 9.926000
C 14.736288 0.000000 9.926000
C 17.192336 0.000000 9.926000
C -1.228024 0.709000 9.926000
C 1.228024 0.709000 9.926000
C 3.684072 0.709000 9.926000
C 6.140120 0.709000 9.926000
C 8.596168 0.709000 9.926000
C 11.052216 0.709000 9.926000
C 13.508264 0.709000 9.926000
C 15.964312 0.709000 9.926000
C -1.228024 2.127000 9.926000
C 1.228024 2.127000 9.926000
C 3.684072 2.127000 9.926000
C 6.140120 2.127000 9.926000
C 8.596168 2.127000 9.926000
C 11.052216 2.127000 9.926000
C 13.508264 2.127000 9.926000
C 15.964312 2.127000 9.926000
C 0.000000 2.836000 9.926000
C 2.456048 2.836000 9.926000
C 4.912096 2.836000 9.926000
C 7.368144 2.836000 9.926000
C 9.824192 2.836000 9.926000
C 12.280240 2.836000 9.926000
C 14.736288 2.836000 9.926000
C 17.192336 2.836000 9.926000
C 0.000000 4.254000 9.926000
C 2.456048 4.254000 9.926000
C 4.912096 4.254000 9.926000
C 12.280240 4.254000 9.926000
C 14.736288 4.254000 9.926000
C 17.192336 4.254000 9.926000
C -1.228024 4.963000 9.926000
C 1.228024 4.963000 9.926000
C 3.684072 4.963000 9.926000
C 13.508264 4.963000 9.926000
C 15.964312 4.963000 9.926000
C -1.228024 6.381000 9.926000
C 1.228024 6.381000 9.926000
C 13.508264 6.381000 9.926000
C 15.964312 6.381000 9.926000
C 0.000000 7.090000 9.926000
C 2.456048 7.090000 9.926000
C 14.736288 7.090000 9.926000
C 17.192336 7.090000 9.926000
C 0.000000 8.508000 9.926000
C 14.736288 8.508000 9.926000
C 17.192336 8.508000 9.926000
C -1.228024 9.217000 9.926000
C 1.228024 9.217000 9.926000
C 15.964312 9.217000 9.926000
C -1.228024 10.635000 9.926000
C 1.228024 10.635000 9.926000
C 15.964312 10.635000 9.926000
C 0.000000 11.344000 9.926000
C 14.736288 11.344000 9.926000
C 17.192336 11.344000 9.926000
C 0.000000 12.762000 9.926000
C 2.456048 12.762000 9.926000
C 14.736288 12.762000 9.926000
C 17.192336 12.762000 9.926000
C -1.228024 13.471000 9.926000
C 1.228024 13.471000 9.926000
C 13.508264 13.471000 9.926000
C 15.964312 13.471000 9.926000
C -1.228024 14.889000 9.926000
C 1.228024 14.889000 9.926000
C 3.684072 14.889000 9.926000
C 13.508264 14.889000 9.926000
C 15.964312 14.889000 9.926000
C 0.000000 15.598000 9.926000
C 2.456048 15.598000 9.926000
C 4.912096 15.598000 9.926000
C 12.280240 15.598000 9.926000
C 14.736288 15.598000 9.926000
C 17.192336 15.598000 9.926000
C 0.000000 17.016000 9.926000
C 2.456048 17.016000 9.926000
C 4.912096 17.016000 9.926000
C 7.368144 17.016000 9.926000
C 9.824192 17.016000 9.926000
C 12.280240 17.016000 9.926000
C 14.736288 17.016000 9.926000
C 17.192336 17.016000 9.926000
C -1.228024 17.725000 9.926000
C 1.228024 17.725000 9.926000
C 3.684072 17.725000 9.926000
C 6.140120 17.725000 9.926000
C 8.596168 17.725000 9.926000
C 11.052216 17.725000 9.926000
C 13.508264 17.725000 9.926000
C 15.964312 17.725000 9.926000
C -1.228024 19.143000 9.926000
C 1.228024 19.143000 9.926000
C 3.684072 19.143000 9.926000
C 6.140120 19.143000 9.926000
C 8.596168 19.143000 9.926000
C 11.052216 19.143000 9.926000
C 13.508264 19.143000 9.926000
C 15.964312 19.143000 9.926000
C 0.000000 19.852000 9.926000
C 2.456048 19.852000 9.926000
C 4.912096 19.852000 9.926000
C 7.368144 19.852000 9.926000
C 9.824192 19.852000 9.926000
C 12.280240 19.852000 9.926000
C 14.736288 19.852000 9.926000
C 17.192336 19.852000 9.926000
C 0.000000 0.000000 14.926000
C 2.456048 0.000000 14.926000
C 4.912096 0.000000 14.926000
C 7.368144 0.000000 14.926000
C 9.824192 0.000000 14.926000
C 12.280240 0.000000 14.926000
C 14.736288 0.000000 14.926000
C 17.192336 0.000000 14.926000
C -1.228024 0.709000 14.926000
C 1.228024 0.709000 14.926000
C 3.684072 0.709000 14.926000
C 6.140120 0.709000 14.926000
C 8.596168 0.709000 14.926000
C 11.052216 0.709000 14.926000
C 13.508264 0.709000 14.926000
C 15.964312 0.709000 14.926000
C -1.228024 2.127000 14.926000
C 1.228024 2.127000 14.926000
C 3.684072 2.127000 14.926000
C 6.140120 2.127000 14.926000
C 8.596168 2.127000 14.926000
C 11.052216 2.127000 14.926000
C 13.508264 2.127000 14.926000
C 15.964312 2.127000 14.926000
C 0.000000 2.836000 14.926000
C 2.456048 2.836000 14.926000
C 4.912096 2.836000 14.926000
C 7.368144 2.836000 14.926000
C 9.824192 2.836000 14.926000
C 12.280240 2.836000 14.926000
C 14.736288 2.836000 14.926000
C 17.192336 2.836000 14.926000
C 0.000000 4.254000 14.926000
C 2.456048 4.254000 14.926000
C 4.912096 4.254000 14.926000
C 7.368144 4.254000 14.926000
C 9.824192 4.254000 14.926000
C 12.280240 4.254000 14.926000
C 14.736288 4.254000 14.926000
C 17.192336 4.254000 14.926000
C -1.228024 4.963000 14.926000
C 1.228024 4.963000 14.926000
C 3.684072 4.963000 14.926000
C 6.140120 4.963000 14.926000
C 8.596168 4.963000 14.926000
C 11.052216 4.963000 14.926000
C 13.508264 4.963000 14.926000
C 15.964312 4.963000 14.926000
C -1.228024 6.381000 14.926000
C 1.228024 6.381000 14.926000
C 3.684072 6.381000 14.926000
C 6.140120 6.381000 14.926000
C 8.596168 6.381000 14.926000
C 11.052216 6.381000 14.926000
C 13.508264 6.381000 14.926000
C 15.964312 6.381000 14.926000
C 0.000000 7.090000 14.926000
C 2.456048 7.090000 14.926000
C 4.912096 7.090000 14.926000
C 7.368144 7.090000 14.926000
C 9.824192 7.090000 14.926000
C 12.280240 7.090000 14.926000
C 14.736288 7.090000 14.926000
C 17.192336 7.090000 14.926000
C 0.000000 8.508000 14.926000
C 2.456048 8.508000 14.926000
C 4.912096 8.508000 14.926000
C 7.368144 8.508000 14.926000
C 9.824192 8.508000 14.926000
C 12.280240 8.508000 14.926000
C 14.736288 8.508000 14.926000
C 17.192336 8.508000 14.926000
C -1.228024 9.217000 14.926000
C 1.228024 9.217000 14.926000
C 3.684072 9.217000 14.926000
C 6.140120 9.217000 14.926000
C 8.596168 9.217000 14.926000
C 11.052216 9.217000 14.926000
C 13.508264 9.217000 14.926000
C 15.964312 9.217000 14.926000
C -1.228024 10.635000 14.926000
C 1.228024 10.635000 14.926000
C 3.684072 10.635000 14.926000
C 6.140120 10.635000 14.926000
C 8.596168 10.635000 14.926000
C 11.052216 10.635000 14.926000
C 13.508264 10.635000 14.926000
C 15.964312 10.635000 14.926000
C 0.000000 11.344000 14.926000
C 2.456048 11.344000 14.926000
C 4.912096 11.344000 14.926000
C 7.368144 11.344000 14.926000
C 9.824192 11.344000 14.926000
C 12.280240 11.344000 14.926000
C 14.736288 11.344000 14.926000
C 17.192336 11.344000 14.926000
C 0.000000 12.762000 14.926000
C 2.456048 12.762000 14.926000
C 4.912096 12.762000 14.926000
C 7.368144 12.762000 14.926000
C 9.824192 12.762000 14.926000
C 12.280240 12.762000 14.926000
C 14.736288 12.762000 14.926000
C 17.192336 12.762000 14.926000
C -1.228024 13.471000 14.926000
C 1.228024 13.471000 14.926000
C 3.684072 13.471000 14.926000
C 6.140120 13.471000 14.926000
C 8.596168 13.471000 14.926000
C 11.052216 13.471000 14.926000
C 13.508264 13.471000 14.926000
C 15.964312 13.471000 14.926000
C -1.228024 14.889000 14.926000
C 1.228024 14.889000 14.926000
C 3.684072 14.889000 14.926000
C 6.140120 14.889000 14.926000
C 8.596168 14.889000 14.926000
C 11.052216 14.889000 14.926000
C 13.508264 14.889000 14.926000
C 15.964312 14.889000 14.926000
C 0.000000 15.598000 14.926000
C 2.456048 15.598000 14.926000
C 4.912096 15.598000 14.926000
C 7.368144 15.598000 14.926000
C 9.824192 15.598000 14.926000
C 12.280240 15.598000 14.926000
C 14.736288 15.598000 14.926000
C 17.192336 15.598000 14.926000
C 0.000000 17.016000 14.926000
C 2.456048 17.016000 14.926000
C 4.912096 17.016000 14.926000
C 7.368144 17.016000 14.926000
C 9.824192 17.016000 14.926000
C 12.280240 17.016000 14.926000
C 14.736288 17.016000 14.926000
C 17.192336 17.016000 14.926000
C -1.228024 17.725000 14.926000
C 1.228024 17.725000 14.926000
C 3.684072 17.725000 14.926000
C 6.140120 17.725000 14.926000
C 8.596168 17.725000 14.926000
C 11.052216 17.725000 14.926000
C 13.508264 17.725000 14.926000
C 15.964312 17.725000 14.926000
C -1.228024 19.143000 14.926000
C 1.228024 19.143000 14.926000
C 3.684072 19.143000 14.926000
C 6.140120 19.143000 14.926000
C 8.596168 19.143000 14.926000
C 11.052216 19.143000 14.926000
C 13.508264 19.143000 14.926000
C 15.964312 19.143000 14.926000
C 0.000000 19.852000 14.926000
C 2.456048 19.852000 14.926000
C 4.912096 19.852000 14.926000
C 7.368144 19.852000 14.926000
C 9.824192 19.852000 14.926000
C 12.280240 19.852000 14.926000
C 14.736288 19.852000 14.926000
C 17.192336 19.852000 14.926000
