740

C 0.000000 0.000000 -14.210180
C 2.456048 0.000000 -14.210180
C 4.912096 0.000000 -14.210180
C 7.368144 0.000000 -14.210180
C 9.824192 0.000000 -14.210180
C 12.280240 0.000000 -14.210180
C 14.736288 0.000000 -14.210180
C 17.192336 0.000000 -14.210180
C -1.228024 0.709000 -14.210180
C 1.228024 0.709000 -14.210180
C 3.684072 0.709000 -14.210180
C 6.140120 0.709000 -14.210180
C 8.596168 0.709000 -14.210180
C 11.052216 0.709000 -14.210180
C 13.508264 0.709000 -14.210180
C 15.964312 0.709000 -14.210180
C -1.228024 2.127000 -14.210180
C 1.228024 2.127000 -14.210180
C 3.684072 2.127000 -14.210180
C 6.140120 2.127000 -14.210180
C 8.596168 2.127000 -14.210180
C 11.052216 2.127000 -14.210180
C 13.508264 2.127000 -14.210180
C 15.964312 2.127000 -14.210180
C 0.000000 2.836000 -14.210180
C 2.456048 2.836000 -14.210180
C 4.912096 2.836000 -14.210180
C 7.368144 2.836000 -14.210180
C 9.824192 2.836000 -14.210180
C 12.280240 2.836000 -14.210180
C 14.736288 2.836000 -14.210180
C 17.192336 2.836000 -14.210180
C 0.000000 4.254000 -14.210180
C 2.456048 4.254000 -14.210180
C 4.912096 4.254000 -14.210180
C 7.368144 4.254000 -14.210180
C 9.824192 4.254000 -14.210180
C 12.280240 4.254000 -14.210180
C 14.736288 4.254000 -14.210180
C 17.192336 4.254000 -14.210180
C -1.228024 4.963000 -14.210180
C 1.228024 4.963000 -14.210180
C 3.684072 4.963000 -14.210180
C 6.140120 4.963000 -14.210180
C 8.596168 4.963000 -14.210180
C 11.052216 4.963000 -14.210180
C 13.508264 4.963000 -14.210180
C 15.964312 4.963000 -14.210180
C -1.228024 6.381000 -14.210180
C 1.228024 6.381000 -14.210180
C 3.684072 6.381000 -14.210180
C 6.140120 6.381000 -14.210180
C 8.596168 6.381000 -14.210180
C 11.052216 6.381000 -14.210180
C 13.508264 6.381000 -14.210180
C 15.964312 6.381000 -14.210180
C 0.000000 7.090000 -14.210180
C 2.456048 7.090000 -14.210180
C 4.912096 7.090000 -14.210180
C 7.368144 7.090000 -14.210180
C 9.824192 7.090000 -14.210180
C 12.280240 7.090000 -14.210180
C 14.736288 7.090000 -14.210180
C 17.192336 7.090000 -14.210180
C 0.000000 8.508000 -14.210180
C 2.456048 8.508000 -14.210180
C 4.912096 8.508000 -14.210180
C 7.368144 8.508000 -14.210180
C 9.824192 8.508000 -14.210180
C 12.280240 8.508000 -14.210180
C 14.736288 8.508000 -14.210180
C 17.192336 8.508000 -14.210180
C -1.228024 9.217000 -14.210180
C 1.228024 9.217000 -14.210180
C 3.684072 9.217000 -14.210180
C 6.140120 9.217000 -14.210180
C 8.596168 9.217000 -14.210180
C 11.052216 9.217000 -14.210180
C 13.508264 9.217000 -14.210180
C 15.964312 9.217000 -14.210180
C -1.228024 10.635000 -14.210180
C 1.228024 10.635000 -14.210180
C 3.684072 10.635000 -14.210180
C 6.140120 10.635000 -14.210180
C 8.596168 10.635000 -14.210180
C 11.052216 10.635000 -14.210180
C 13.508264 10.635000 -14.210180
C 15.964312 10.635000 -14.210180
C 0.000000 11.344000 -14.210180
C 2.456048 11.344000 -14.210180
C 4.912096 11.344000 -14.210180
C 7.368144 11.344000 -14.210180
C 9.824192 11.344000 -14.210180
C 12.280240 11.344000 -14.210180
C 14.736288 11.344000 -14.210180
C 17.192336 11.344000 -14.210180
C 0.000000 12.762000 -14.210180
C 2.456048 12.762000 -14.210180
C 4.912096 12.762000 -14.210180
C 7.368144 12.762000 -14.210180
C 9.824192 12.762000 -14.210180
C 12.280240 12.762000 -14.210180
C 14.736288 12.762000 -14.210180
C 17.192336 12.762000 -14.210180
C -1.228024 13.471000 -14.210180
C 1.228024 13.471000 -14.210180
C 3.684072 13.471000 -14.210180
C 6.140120 13.471000 -14.210180
C 8.596168 13.471000 -14.210180
C 11.052216 13.471000 -14.210180
C 13.508264 13.471000 -14.210180
C 15.964312 13.471000 -14.210180
C -1.228024 14.889000 -14.210180
C 1.228024 14.889000 -14.210180
C 3.684072 14.889000 -14.210180
C 6.140120 14.889000 -14.210180
C 8.596168 14.889000 -14.210180
C 11.052216 14.889000 -14.210180
C 13.508264 14.889000 -14.210180
C 15.964312 14.889000 -14.210180
C 0.000000 15.598000 -14.210180
C 2.456048 15.598000 -14.210180
C 4.912096 15.598000 -14.210180
C 7.368144 15.598000 -14.210180
C 9.824192 15.598000 -14.210180
C 12.280240 15.598000 -14.210180
C 14.736288 15.598000 -14.210180
C 17.192336 15.598000 -14.210180
C 0.000000 17.016000 -14.210180
C 2.456048 17.016000 -14.210180
C 4.912096 17.016000 -14.210180
C 7.368144 17.016000 -14.210180
C 9.824192 17.016000 -14.210180
C 12.280240 17.016000 -14.210180
C 14.736288 17.016000 -14.210180
C 17.192336 17.016000 -14.210180
C -1.228024 17.725000 -14.210180
C 1.228024 17.725000 -14.210180
C 3.684072 17.725000 -14.210180
C 6.140120 17.725000 -14.210180
C 8.596168 17.725000 -14.210180
C 11.052216 17.725000 -14.210180
C 13.508264 17.725000 -14.210180
C 15.964312 17.725000 -14.210180
C -1.228024 19.143000 -14.210180
C 1.228024 19.143000 -14.210180
C 3.684072 19.143000 -14.210180
C 6.140120 19.143000 -14.210180
C 8.596168 19.143000 -14.210180
C 11.052216 19.143000 -14.210180
C 13.508264 19.143000 -14.210180
C 15.964312 19.143000 -14.210180
C 0.000000 19.852000 -14.210180
C 2.456048 19.852000 -14.210180
C 4.912096 19.852000 -14.210180
C 7.368144 19.852000 -14.210180
C 9.824192 19.852000 -14.210180
C 12.280240 19.852000 -14.210180
C 14.736288 19.852000 -14.210180
C 17.192336 19.852000 -14.210180
C 0.000000 0.000000 -9.210180
C 2.456048 0.000000 -9.210180
C 4.912096 0.000000 -9.210180
C 7.368144 0.000000 -9.210180
C 9.824192 0.000000 -9.210180
C 12.280240 0.000000 -9.210180
C 14.736288 0.000000 -9.210180
C 17.192336 0.000000 -9.210180
C -1.228024 0.709000 -9.210180
C 1.228024 0.709000 -9.210180
C 3.684072 0.709000 -9.210180
C 6.140120 0.709000 -9.210180
C 8.596168 0.709000 -9.210180
C 11.052216 0.709000 -9.210180
C 13.508264 0.709000 -9.210180
C 15.964312 0.709000 -9.210180
C -1.228024 2.127000 -9.210180
C 1.228024 2.127000 -9.210180
C 3.684072 2.127000 -9.210180
C 6.140120 2.127000 -9.210180
C 8.596168 2.127000 -9.210180
C 11.052216 2.127000 -9.210180
C 13.508264 2.127000 -9.210180
C 15.964312 2.127000 -9.210180
C 0.000000 2.836000 -9.210180
C 2.456048 2.836000 -9.210180
C 4.912096 2.836000 -9.210180
C 7.368144 2.836000 -9.210180
C 9.824192 2.836000 -9.210180
C 12.280240 2.836000 -9.210180
C 14.736288 2.836000 -9.210180
C 17.192336 2.836000 -9.210180
C 0.000000 4.254000 -9.210180
C 2.456048 4.254000 -9.210180
C 4.912096 4.254000 -9.210180
C 12.280240 4.254000 -9.210180
C 14.736288 4.254000 -9.210180
C 17.192336 4.254000 -9.210180
C -1.228024 4.963000 -9.210180
C 1.228024 4.963000 -9.210180
C 3.684072 4.963000 -9.210180
C 13.508264 4.963000 -9.210180
C 15.964312 4.963000 -9.210180
C -1.228024 6.381000 -9.210180
C 1.228024 6.381000 -9.210180
C 13.508264 6.381000 -9.210180
C 15.964312 6.381000 -9.210180
C 0.000000 7.090000 -9.210180
C 2.456048 7.090000 -9.210180
C 14.736288 7.090000 -9.210180
C 17.192336 7.090000 -9.210180
C 0.000000 8.508000 -9.210180
C 14.736288 8.508000 -9.210180
C 17.192336 8.508000 -9.210180
C -1.228024 9.217000 -9.210180
C 1.228024 9.217000 -9.210180
C 15.964312 9.217000 -9.210180
C -1.228024 10.635000 -9.210180
C 1.228024 10.635000 -9.210180
C 15.964312 10.635000 -9.210180
C 0.000000 11.344000 -9.210180
C 14.736288 11.344000 -9.210180
C 17.192336 11.344000 -9.210180
C 0.000000 12.762000 -9.210180
C 2.456048 12.762000 -9.210180
C 14.736288 12.762000 -9.210180
C 17.192336 12.762000 -9.210180
C -1.228024 13.471000 -9.210180
C 1.228024 13.471000 -9.210180
C 13.508264 13.471000 -9.210180
C 15.964312 13.471000 -9.210180
C -1.228024 14.889000 -9.210180
C 1.228024 14.889000 -9.210180
C 3.684072 14.889000 -9.210180
C 13.508264 14.889000 -9.210180
C 15.964312 14.889000 -9.210180
C 0.000000 15.598000 -9.210180
C 2.456048 15.598000 -9.210180
C 4.912096 15.598000 -9.210180
C 12.280240 15.598000 -9.210180
C 14.736288 15.598000 -9.210180
C 17.192336 15.598000 -9.210180
C 0.000000 17.016000 -9.210180
C 2.456048 17.016000 -9.210180
C 4.912096 17.016000 -9.210180
C 7.368144 17.016000 -9.210180
C 9.824192 17.016000 -9.210180
C 12.280240 17.016000 -9.210180
C 14.736288 17.016000 -9.210180
C 17.192336 17.016000 -9.210180
C -1.228024 17.725000 -9.210180
C 1.228024 17.725000 -9.210180
C 3.684072 17.725000 -9.210180
C 6.140120 17.725000 -9.210180
C 8.596168 17.725000 -9.210180
C 11.052216 17.725000 -9.210180
C 13.508264 17.725000 -9.210180
C 15.964312 17.725000 -9.210180
C -1.228024 19.143000 -9.210180
C 1.228024 19.143000 -9.210180
C 3.684072 19.143000 -9.210180
C 6.140120 19.143000 -9.210180
C 8.596168 19.143000 -9.210180
C 11.052216 19.143000 -9.210180
C 13.508264 19.143000 -9.210180
C 15.964312 19.143000 -9.210180
C 0.000000 19.852000 -9.210180
C 2.456048 19.852000 -9.210180
C 4.912096 19.852000 -9.210180
C 7.368144 19.852000 -9.210180
C 9.824192 19.852000 -9.210180
C 12.280240 19.852000 -9.210180
C 14.736288 19.852000 -9.210180
C 17.192336 19.852000 -9.210180
C 11.493643 11.953358 -9.210180
C 9.370679 13.735557 -9.210180
C 7.982156 13.980716 -9.210180
C 5.377245 13.033275 -9.210180
C 4.470669 11.953358 -9.210180
C 3.988721 9.223718 -9.210180
C 4.470669 7.898642 -9.210180
C 6.593633 6.116443 -9.210180
C 7.982156 5.871284 -9.210180
C 10.587067 6.818725 -9.210180
C 11.493643 7.898642 -9.210180
C 11.975591 10.628282 -9.210180
C 12.036872 9.926000 -7.982156
C 11.089431 12.530911 -7.982156
C 10.009514 13.437487 -7.982156
C 7.279874 13.919435 -7.982156
C 5.954798 13.437487 -7.982156
C 4.172599 11.314523 -7.982156
C 3.927440 9.926000 -7.982156
C 4.874881 7.321089 -7.982156
C 5.954798 6.414513 -7.982156
C 8.684438 5.932565 -7.982156
C 10.009514 6.414513 -7.982156
C 11.791713 8.537477 -7.982156
C 11.493643 11.953358 -6.754132
C 9.370679 13.735557 -6.754132
C 7.982156 13.980716 -6.754132
C 5.377245 13.033275 -6.754132
C 4.470669 11.953358 -6.754132
C 3.988721 9.223718 -6.754132
C 4.470669 7.898642 -6.754132
C 6.593633 6.116443 -6.754132
C 7.982156 5.871284 -6.754132
C 10.587067 6.818725 -6.754132
C 11.493643 7.898642 -6.754132
C 11.975591 10.628282 -6.754132
C 12.036872 9.926000 -5.526108
C 11.089431 12.530911 -5.526108
C 10.009514 13.437487 -5.526108
C 7.279874 13.919435 -5.526108
C 5.954798 13.437487 -5.526108
C 4.172599 11.314523 -5.526108
C 3.927440 9.926000 -5.526108
C 4.874881 7.321089 -5.526108
C 5.954798 6.414513 -5.526108
C 8.684438 5.932565 -5.526108
C 10.009514 6.414513 -5.526108
C 11.791713 8.537477 -5.526108
C 11.493643 11.953358 -4.298084
C 9.370679 13.735557 -4.298084
C 7.982156 13.980716 -4.298084
C 5.377245 13.033275 -4.298084
C 4.470669 11.953358 -4.298084
C 3.988721 9.223718 -4.298084
C 4.470669 7.898642 -4.298084
C 6.593633 6.116443 -4.298084
C 7.982156 5.871284 -4.298084
C 10.587067 6.818725 -4.298084
C 11.493643 7.898642 -4.298084
C 11.975591 10.628282 -4.298084
C 12.036872 9.926000 -3.070060
C 11.089431 12.530911 -3.070060
C 10.009514 13.437487 -3.070060
C 7.279874 13.919435 -3.070060
C 5.954798 13.437487 -3.070060
C 4.172599 11.314523 -3.070060
C 3.927440 9.926000 -3.070060
C 4.874881 7.321089 -3.070060
C 5.954798 6.414513 -3.070060
C 8.684438 5.932565 -3.070060
C 10.009514 6.414513 -3.070060
C 11.791713 8.537477 -3.070060
C 11.493643 11.953358 -1.842036
C 9.370679 13.735557 -1.842036
C 7.982156 13.980716 -1.842036
C 5.377245 13.033275 -1.842036
C 4.470669 11.953358 -1.842036
C 3.988721 9.223718 -1.842036
C 4.470669 7.898642 -1.842036
C 6.593633 6.116443 -1.842036
C 7.982156 5.871284 -1.842036
C 10.587067 6.818725 -1.842036
C 11.493643 7.898642 -1.842036
C 11.975591 10.628282 -1.842036
C 12.036872 9.926000 -0.614012
C 11.089431 12.530911 -0.614012
C 10.009514 13.437487 -0.614012
C 7.279874 13.919435 -0.614012
C 5.954798 13.437487 -0.614012
C 4.172599 11.314523 -0.614012
C 3.927440 9.926000 -0.614012
C 4.874881 7.321089 -0.614012
C 5.954798 6.414513 -0.614012
C 8.684438 5.932565 -0.614012
C 10.009514 6.414513 -0.614012
C 11.791713 8.537477 -0.614012
C 11.493643 11.953358 0.614012
C 9.370679 13.735557 0.614012
C 7.982156 13.980716 0.614012
C 5.377245 13.033275 0.614012
C 4.470669 11.953358 0.614012
C 3.988721 9.223718 0.614012
C 4.470669 7.898642 0.614012
C 6.593633 6.116443 0.614012
C 7.982156 5.871284 0.614012
C 10.587067 6.818725 0.614012
C 11.493643 7.898642 0.614012
C 11.975591 10.628282 0.614012
C 12.036872 9.926000 1.842036
C 11.089431 12.530911 1.842036
C 10.009514 13.437487 1.842036
C 7.279874 13.919435 1.842036
C 5.954798 13.437487 1.842036
C 4.172599 11.314523 1.842036
C 3.927440 9.926000 1.842036
C 4.874881 7.321089 1.842036
C 5.954798 6.414513 1.842036
C 8.684438 5.932565 1.842036
C 10.009514 6.414513 1.842036
C 11.791713 8.537477 1.842036
C 11.493643 11.953358 3.070060
C 9.370679 13.735557 3.070060
C 7.982156 13.980716 3.070060
C 5.377245 13.033275 3.070060
C 4.470669 11.953358 3.070060
C 3.988721 9.223718 3.070060
C 4.470669 7.898642 3.070060
C 6.593633 6.116443 3.070060
C 7.982156 5.871284 3.070060
C 10.587067 6.818725 3.070060
C 11.493643 7.898642 3.070060
C 11.975591 10.628282 3.070060
C 12.036872 9.926000 4.298084
C 11.089431 12.530911 4.298084
C 10.009514 13.437487 4.298084
C 7.279874 13.919435 4.298084
C 5.954798 13.437487 4.298084
C 4.172599 11.314523 4.298084
C 3.927440 9.926000 4.298084
C 4.874881 7.321089 4.298084
C 5.954798 6.414513 4.298084
C 8.684438 5.932565 4.298084
C 10.009514 6.414513 4.298084
C 11.791713 8.537477 4.298084
C 11.493643 11.953358 5.526108
C 9.370679 13.735557 5.526108
C 7.982156 13.980716 5.526108
C 5.377245 13.033275 5.526108
C 4.470669 11.953358 5.526108
C 3.988721 9.223718 5.526108
C 4.470669 7.898642 5.526108
C 6.593633 6.116443 5.526108
C 7.982156 5.871284 5.526108
C 10.587067 6.818725 5.526108
C 11.493643 7.898642 5.526108
C 11.975591 10.628282 5.526108
C 12.036872 9.926000 6.754132
C 11.089431 12.530911 6.754132
C 10.009514 13.437487 6.754132
C 7.279874 13.919435 6.754132
C 5.954798 13.437487 6.754132
C 4.172599 11.314523 6.754132
C 3.927440 9.926000 6.754132
C 4.874881 7.321089 6.754132
C 5.954798 6.414513 6.754132
C 8.684438 5.932565 6.754132
C 10.009514 6.414513 6.754132
C 11.791713 8.537477 6.754132
C 11.493643 11.953358 7.982156
C 9.370679 13.735557 7.982156
C 7.982156 13.980716 7.982156
C 5.377245 13.033275 7.982156
C 4.470669 11.953358 7.982156
C 3.988721 9.223718 7.982156
C 4.470669 7.898642 7.982156
C 6.593633 6.116443 7.982156
C 7.982156 5.871284 7.982156
C 10.587067 6.818725 7.982156
C 11.493643 7.898642 7.982156
C 11.975591 10.628282 7.982156
C 12.036872 9.926000 9.210180
C 11.089431 12.530911 9.210180
C 10.009514 13.437487 9.210180
C 7.279874 13.919435 9.210180
C 5.954798 13.437487 9.210180
C 4.172599 11.314523 9.210180
C 3.927440 9.926000 9.210180
C 4.874881 7.321089 9.210180
C 5.954798 6.414513 9.210180
C 8.684438 5.932565 9.210180
C 10.009514 6.414513 9.210180
C 11.791713 8.537477 9.210180
C 0.000000 0.000000 9.210180
C 2.456048 0.000000 9.210180
C 4.912096 0.000000 9.210180
C 7.368144 0.000000 9.210180
C 9.824192 0.000000 9.210180
C 12.280240 0.000000 9.210180
C 14.736288 0.000000 9.210180
C 17.192336 0.000000 9.210180
C -1.228024 0.709000 9.210180
C 1.228024 0.709000 9.210180
C 3.684072 0.709000 9.210180
C 6.140120 0.709000 9.210180
C 8.596168 0.709000 9.210180
C 11.052216 0.709000 9.210180
C 13.508264 0.709000 9.210180
C 15.964312 0.709000 9.210180
C -1.228024 2.127000 9.210180
C 1.228024 2.127000 9.210180
C 3.684072 2.127000 9.210180
C 6.140120 2.127000 9.210180
C 8.596168 2.127000 9.210180
C 11.052216 2.127000 9.210180
C 13.508264 2.127000 9.210180
C 15.964312 2.127000 9.210180
C 0.000000 2.836000 9.210180
C 2.456048 2.836000 9.210180
C 4.912096 2.836000 9.210180
C 7.368144 2.836000 9.210180
C 9.824192 2.836000 9.210180
C 12.280240 2.836000 9.210180
C 14.736288 2.836000 9.210180
C 17.192336 2.836000 9.210180
C 0.000000 4.254000 9.210180
C 2.456048 4.254000 9.210180
C 4.912096 4.254000 9.210180
C 12.280240 4.254000 9.210180
C 14.736288 4.254000 9.210180
C 17.192336 4.254000 9.210180
C -1.228024 4.963000 9.210180
C 1.228024 4.963000 9.210180
C 3.684072 4.963000 9.210180
C 13.508264 4.963000 9.210180
C 15.964312 4.963000 9.210180
C -1.228024 6.381000 9.210180
C 1.228024 6.381000 9.210180
C 13.508264 6.381000 9.210180
C 15.964312 6.381000 9.210180
C 0.000000 7.090000 9.210180
C 2.456048 7.090000 9.210180
C 14.736288 7.090000 9.210180
C 17.192336 7.090000 9.210180
C 0.000000 8.508000 9.210180
C 14.736288 8.508000 9.210180
C 17.192336 8.508000 9.210180
C -1.228024 9.217000 9.210180
C 1.228024 9.217000 9.210180
C 15.964312 9.217000 9.210180
C -1.228024 10.635000 9.210180
C 1.228024 10.635000 9.210180
C 15.964312 10.635000 9.210180
C 0.000000 11.344000 9.210180
C 14.736288 11.344000 9.210180
C 17.192336 11.344000 9.210180
C 0.000000 12.762000 9.210180
C 2.456048 12.762000 9.210180
C 14.736288 12.762000 9.210180
C 17.192336 12.762000 9.210180
C -1.228024 13.471000 9.210180
C 1.228024 13.471000 9.210180
C 13.508264 13.471000 9.210180
C 15.964312 13.471000 9.210180
C -1.228024 14.889000 9.210180
C 1.228024 14.889000 9.210180
C 3.684072 14.889000 9.210180
C 13.508264 14.889000 9.210180
C 15.964312 14.889000 9.210180
C 0.000000 15.598000 9.210180
C 2.456048 15.598000 9.210180
C 4.912096 15.598000 9.210180
C 12.280240 15.598000 9.210180
C 14.736288 15.598000 9.210180
C 17.192336 15.598000 9.210180
C 0.000000 17.016000 9.210180
C 2.456048 17.016000 9.210180
C 4.912096 17.016000 9.210180
C 7.368144 17.016000 9.210180
C 9.824192 17.016000 9.210180
C 12.280240 17.016000 9.210180
C 14.736288 17.016000 9.210180
C 17.192336 17.016000 9.210180
C -1.228024 17.725000 9.210180
C 1.228024 17.725000 9.210180
C 3.684072 17.725000 9.210180
C 6.140120 17.725000 9.210180
C 8.596168 17.725000 9.210180
C 11.052216 17.725000 9.210180
C 13.508264 17.725000 9.210180
C 15.964312 17.725000 9.210180
C -1.228024 19.143000 9.210180
C 1.228024 19.143000 9.210180
C 3.684072 19.143000 9.210180
C 6.140120 19.143000 9.210180
C 8.596168 19.143000 9.210180
C 11.052216 19.143000 9.210180
C 13.508264 19.143000 9.210180
C 15.964312 19.143000 9.210180
C 0.000000 19.852000 9.210180
C 2.456048 19.852000 9.210180
C 4.912096 19.852000 9.210180
C 7.368144 19.852000 9.210180
C 9.824192 19.852000 9.210180
C 12.280240 19.852000 9.210180
C 14.736288 19.852000 9.210180
C 17.192336 19.852000 9.210180
C 0.000000 0.000000 14.210180
C 2.456048 0.000000 14.210180
C 4.912096 0.000000 14.210180
C 7.368144 0.000000 14.210180
C 9.824192 0.000000 14.210180
C 12.280240 0.000000 14.210180
C 14.736288 0.000000 14.210180
C 17.192336 0.000000 14.210180
C -1.228024 0.709000 14.210180
C 1.228024 0.709000 14.210180
C 3.684072 0.709000 14.210180
C 6.140120 0.709000 14.210180
C 8.596168 0.709000 14.210180
C 11.052216 0.709000 14.210180
C 13.508264 0.709000 14.210180
C 15.964312 0.709000 14.210180
C -1.228024 2.127000 14.210180
C 1.228024 2.127000 14.210180
C 3.684072 2.127000 14.210180
C 6.140120 2.127000 14.210180
C 8.596168 2.127000 14.210180
C 11.052216 2.127000 14.210180
C 13.508264 2.127000 14.210180
C 15.964312 2.127000 14.210180
C 0.000000 2.836000 14.210180
C 2.456048 2.836000 14.210180
C 4.912096 2.836000 14.210180
C 7.368144 2.836000 14.210180
C 9.824192 2.836000 14.210180
C 12.280240 2.836000 14.210180
C 14.736288 2.836000 14.210180
C 17.192336 2.836000 14.210180
C 0.000000 4.254000 14.210180
C 2.456048 4.254000 14.210180
C 4.912096 4.254000 14.210180
C 7.368144 4.254000 14.210180
C 9.824192 4.254000 14.210180
C 12.280240 4.254000 14.210180
C 14.736288 4.254000 14.210180
C 17.192336 4.254000 14.210180
C -1.228024 4.963000 14.210180
C 1.228024 4.963000 14.210180
C 3.684072 4.963000 14.210180
C 6.140120 4.963000 14.210180
C 8.596168 4.963000 14.210180
C 11.052216 4.963000 14.210180
C 13.508264 4.963000 14.210180
C 15.964312 4.963000 14.210180
C -1.228024 6.381000 14.210180
C 1.228024 6.381000 14.210180
C 3.684072 6.381000 14.210180
C 6.140120 6.381000 14.210180
C 8.596168 6.381000 14.210180
C 11.052216 6.381000 14.210180
C 13.508264 6.381000 14.210180
C 15.964312 6.381000 14.210180
C 0.000000 7.090000 14.210180
C 2.456048 7.090000 14.210180
C 4.912096 7.090000 14.210180
C 7.368144 7.090000 14.210180
C 9.824192 7.090000 14.210180
C 12.280240 7.090000 14.210180
C 14.736288 7.090000 14.210180
C 17.192336 7.090000 14.210180
C 0.000000 8.508000 14.210180
C 2.456048 8.508000 14.210180
C 4.912096 8.508000 14.210180
C 7.368144 8.508000 14.210180
C 9.824192 8.508000 14.210180
C 12.280240 8.508000 14.210180
C 14.736288 8.508000 14.210180
C 17.192336 8.508000 14.210180
C -1.228024 9.217000 14.210180
C 1.228024 9.217000 14.210180
C 3.684072 9.217000 14.210180
C 6.140120 9.217000 14.210180
C 8.596168 9.217000 14.210180
C 11.052216 9.217000 14.210180
C 13.508264 9.217000 14.210180
C 15.964312 9.217000 14.210180
C -1.228024 10.635000 14.210180
C 1.228024 10.635000 14.210180
C 3.684072 10.635000 14.210180
C 6.140120 10.635000 14.210180
C 8.596168 10.635000 14.210180
C 11.052216 10.635000 14.210180
C 13.508264 10.635000 14.210180
C 15.964312 10.635000 14.210180
C 0.000000 11.344000 14.210180
C 2.456048 11.344000 14.210180
C 4.912096 11.344000 14.210180
C 7.368144 11.344000 14.210180
C 9.824192 11.344000 14.210180
C 12.280240 11.344000 14.210180
C 14.736288 11.344000 14.210180
C 17.192336 11.344000 14.210180
C 0.000000 12.762000 14.210180
C 2.456048 12.762000 14.210180
C 4.912096 12.762000 14.210180
C 7.368144 12.762000 14.210180
C 9.824192 12.762000 14.210180
C 12.280240 12.762000 14.210180
C 14.736288 12.762000 14.210180
C 17.192336 12.762000 14.210180
C -1.228024 13.471000 14.210180
C 1.228024 13.471000 14.210180
C 3.684072 13.471000 14.210180
C 6.140120 13.471000 14.210180
C 8.596168 13.471000 14.210180
C 11.052216 13.471000 14.210180
C 13.508264 13.471000 14.210180
C 15.964312 13.471000 14.210180
C -1.228024 14.889000 14.210180
C 1.228024 14.889000 14.210180
C 3.684072 14.889000 14.210180
C 6.140120 14.889000 14.210180
C 8.596168 14.889000 14.210180
C 11.052216 14.889000 14.210180
C 13.508264 14.889000 14.210180
C 15.964312 14.889000 14.210180
C 0.000000 15.598000 14.210180
C 2.456048 15.598000 14.210180
C 4.912096 15.598000 14.210180
C 7.368144 15.598000 14.210180
C 9.824192 15.598000 14.210180
C 12.280240 15.598000 14.210180
C 14.736288 15.598000 14.210180
C 17.192336 15.598000 14.210180
C 0.000000 17.016000 14.210180
C 2.456048 17.016000 14.210180
C 4.912096 17.016000 14.210180
C 7.368144 17.016000 14.210180
C 9.824192 17.016000 14.210180
C 12.280240 17.016000 14.210180
C 14.736288 17.016000 14.210180
C 17.192336 17.016000 14.210180
C -1.228024 17.725000 14.210180
C 1.228024 17.725000 14.210180
C 3.684072 17.725000 14.210180
C 6.140120 17.725000 14.210180
C 8.596168 17.725000 14.210180
C 11.052216 17.725000 14.210180
C 13.508264 17.725000 14.210180
C 15.964312 17.725000 14.210180
C -1.228024 19.143000 14.210180
C 1.228024 19.143000 14.210180
C 3.684072 19.143000 14.210180
C 6.140120 19.143000 14.210180
C 8.596168 19.143000 14.210180
C 11.052216 19.143000 14.210180
C 13.508264 19.143000 14.210180
C 15.964312 19.143000 14.210180
C 0.000000 19.852000 14.210180
C 2.456048 19.852000 14.210180
C 4.912096 19.852000 14.210180
C 7.368144 19.852000 14.210180
C 9.824192 19.852000 14.210180
C 12.280240 19.852000 14.210180
C 14.736288 19.852000 14.210180
C 17.192336 19.852000 14.210180
