62

C 0.000000 0.000000 0.000000
C 2.456048 0.000000 0.000000
C 4.912096 0.000000 0.000000
C 7.368144 0.000000 0.000000
C -1.228024 0.709000 0.000000
C 1.228024 0.709000 0.000000
C 3.684072 0.709000 0.000000
C 6.140120 0.709000 0.000000
C -1.228024 2.127000 0.000000
C 1.228024 2.127000 0.000000
C 3.684072 2.127000 0.000000
C 6.140120 2.127000 0.000000
C 0.000000 2.836000 0.000000
C 2.456048 2.836000 0.000000
C 4.912096 2.836000 0.000000
C 7.368144 2.836000 0.000000
C 0.000000 4.254000 0.000000
C 2.456048 4.254000 0.000000
C 4.912096 4.254000 0.000000
C 7.368144 4.254000 0.000000
C -1.228024 4.963000 0.000000
C 1.228024 4.963000 0.000000
C 3.684072 4.963000 0.000000
C 6.140120 4.963000 0.000000
C -1.228024 6.381000 0.000000
C 1.228024 6.381000 0.000000
C 3.684072 6.381000 0.000000
C 6.140120 6.381000 0.000000
C 0.000000 7.090000 0.000000
C 2.456048 7.090000 0.000000
C 4.912096 7.090000 0.000000
C 7.368144 7.090000 0.000000
C 0.000000 8.508000 0.000000
C 2.456048 8.508000 0.000000
C 4.912096 8.508000 0.000000
C 7.368144 8.508000 0.000000
C -1.228024 9.217000 0.000000
C 1.228024 9.217000 0.000000
C 3.684072 9.217000 0.000000
C 6.140120 9.217000 0.000000
O 0.000000 7.090000 1.470000
H -0.932563 7.090000 1.771209
O 2.456048 2.836000 1.470000
H 1.523485 2.836000 1.771209
O 1.228024 0.709000 1.470000
H 0.295461 0.709000 1.771209
O 3.684072 9.217000 1.470000
H 2.751509 9.217000 1.771209
O 1.228024 6.381000 1.470000
H 0.295461 6.381000 1.771209
O 4.912096 8.508000 1.470000
H 3.979533 8.508000 1.771209
O 7.368144 0.000000 1.470000
H 6.435581 0.000000 1.771209
O 0.000000 8.508000 1.470000
H -0.932563 8.508000 1.771209
O 3.684072 0.709000 1.470000
H 2.751509 0.709000 1.771209
O 1.228024 9.217000 1.470000
H 0.295461 9.217000 1.771209
O 6.140120 2.127000 1.470000
H 5.207557 2.127000 1.771209
